
     RDKit          3D

 59 62  0  0  0  0  0  0  0  0999 V2000
   -3.6616    0.9135    0.8150 C   0  0  0  0  0  0  0  0  0  0  0  0
   -3.4900   -0.5335    0.6695 N   0  0  0  0  0  0  0  0  0  0  0  0
   -2.2643   -1.0839    0.2460 C   0  0  0  0  0  0  0  0  0  0  0  0
   -1.2140   -0.1249   -0.3718 C   0  0  2  0  0  0  0  0  0  0  0  0
   -1.5242    0.0127   -1.8731 C   0  0  0  0  0  0  0  0  0  0  0  0
   -0.5636    0.8785   -2.6596 C   0  0  0  0  0  0  0  0  0  0  0  0
   -0.0641    0.4213   -3.8894 C   0  0  0  0  0  0  0  0  0  0  0  0
    0.8005    1.2135   -4.6470 C   0  0  0  0  0  0  0  0  0  0  0  0
    1.1707    2.4756   -4.1892 C   0  0  0  0  0  0  0  0  0  0  0  0
    0.6758    2.9454   -2.9746 C   0  0  0  0  0  0  0  0  0  0  0  0
   -0.1912    2.1553   -2.2165 C   0  0  0  0  0  0  0  0  0  0  0  0
    0.1086   -0.7171   -0.1518 N   0  0  0  0  0  0  0  0  0  0  0  0
    0.8017   -0.4326    1.0111 C   0  0  0  0  0  0  0  0  0  0  0  0
    2.0743   -1.2470    1.1889 C   0  0  0  0  0  0  0  0  0  0  0  0
    3.2921   -0.3813    1.2814 C   0  0  0  0  0  0  0  0  0  0  0  0
    4.1015   -0.2010    2.3937 C   0  0  0  0  0  0  0  0  0  0  0  0
    4.0013   -0.7600    3.7665 C   0  0  0  0  0  0  0  0  0  0  0  0
    5.1127    0.6565    2.0392 N   0  0  0  0  0  0  0  0  0  0  0  0
    4.9898    1.0358    0.7245 C   0  0  0  0  0  0  0  0  0  0  0  0
    3.8526    0.4063    0.2215 C   0  0  0  0  0  0  0  0  0  0  0  0
    3.4961    0.6427   -1.1224 C   0  0  0  0  0  0  0  0  0  0  0  0
    4.2865    1.4897   -1.9083 C   0  0  0  0  0  0  0  0  0  0  0  0
    5.4188    2.1001   -1.3763 C   0  0  0  0  0  0  0  0  0  0  0  0
    5.7928    1.8851   -0.0468 C   0  0  0  0  0  0  0  0  0  0  0  0
    0.4109    0.4015    1.8248 O   0  0  0  0  0  0  0  0  0  0  0  0
   -1.9872   -2.2902    0.2913 O   0  0  0  0  0  0  0  0  0  0  0  0
   -4.5435   -1.3760    1.1851 C   0  0  0  0  0  0  0  0  0  0  0  0
   -4.7306   -2.6854    0.7179 C   0  0  0  0  0  0  0  0  0  0  0  0
   -5.7680   -3.4920    1.2010 C   0  0  0  0  0  0  0  0  0  0  0  0
   -6.6446   -3.0031    2.1623 C   0  0  0  0  0  0  0  0  0  0  0  0
   -6.4838   -1.7076    2.6392 C   0  0  0  0  0  0  0  0  0  0  0  0
   -5.4460   -0.9030    2.1537 C   0  0  0  0  0  0  0  0  0  0  0  0
   -4.7189    1.1957    0.7876 H   0  0  0  0  0  0  0  0  0  0  0  0
   -3.2003    1.2327    1.7545 H   0  0  0  0  0  0  0  0  0  0  0  0
   -3.1947    1.4510   -0.0127 H   0  0  0  0  0  0  0  0  0  0  0  0
   -1.2267    0.8416    0.1352 H   0  0  0  0  0  0  0  0  0  0  0  0
   -2.5329    0.4198   -2.0173 H   0  0  0  0  0  0  0  0  0  0  0  0
   -1.5457   -0.9917   -2.3188 H   0  0  0  0  0  0  0  0  0  0  0  0
   -0.3447   -0.5591   -4.2695 H   0  0  0  0  0  0  0  0  0  0  0  0
    1.1831    0.8451   -5.5959 H   0  0  0  0  0  0  0  0  0  0  0  0
    1.8444    3.0931   -4.7769 H   0  0  0  0  0  0  0  0  0  0  0  0
    0.9673    3.9285   -2.6126 H   0  0  0  0  0  0  0  0  0  0  0  0
   -0.5620    2.5528   -1.2747 H   0  0  0  0  0  0  0  0  0  0  0  0
    0.2312   -1.6502   -0.5282 H   0  0  0  0  0  0  0  0  0  0  0  0
    2.1998   -1.9479    0.3548 H   0  0  0  0  0  0  0  0  0  0  0  0
    1.9478   -1.8568    2.0909 H   0  0  0  0  0  0  0  0  0  0  0  0
    3.0146   -0.5517    4.1926 H   0  0  0  0  0  0  0  0  0  0  0  0
    4.1463   -1.8448    3.7450 H   0  0  0  0  0  0  0  0  0  0  0  0
    4.7544   -0.3303    4.4348 H   0  0  0  0  0  0  0  0  0  0  0  0
    5.8490    0.9725    2.6541 H   0  0  0  0  0  0  0  0  0  0  0  0
    2.6104    0.1839   -1.5518 H   0  0  0  0  0  0  0  0  0  0  0  0
    4.0058    1.6727   -2.9420 H   0  0  0  0  0  0  0  0  0  0  0  0
    6.0194    2.7561   -2.0017 H   0  0  0  0  0  0  0  0  0  0  0  0
    6.6735    2.3641    0.3675 H   0  0  0  0  0  0  0  0  0  0  0  0
   -4.0928   -3.1056   -0.0545 H   0  0  0  0  0  0  0  0  0  0  0  0
   -5.8865   -4.5026    0.8185 H   0  0  0  0  0  0  0  0  0  0  0  0
   -7.4476   -3.6304    2.5395 H   0  0  0  0  0  0  0  0  0  0  0  0
   -7.1596   -1.3210    3.3978 H   0  0  0  0  0  0  0  0  0  0  0  0
   -5.3448    0.0876    2.5873 H   0  0  0  0  0  0  0  0  0  0  0  0
  1  2  1  0
  2  3  1  0
  3  4  1  0
  4  5  1  0
  5  6  1  0
  6  7  2  0
  7  8  1  0
  8  9  2  0
  9 10  1  0
 10 11  2  0
  4 12  1  0
 12 13  1  0
 13 14  1  0
 14 15  1  0
 15 16  2  0
 16 17  1  0
 16 18  1  0
 18 19  1  0
 19 20  2  0
 20 21  1  0
 21 22  2  0
 22 23  1  0
 23 24  2  0
 13 25  2  0
  3 26  2  0
  2 27  1  0
 27 28  2  0
 28 29  1  0
 29 30  2  0
 30 31  1  0
 31 32  2  0
 11  6  1  0
 20 15  1  0
 24 19  1  0
 32 27  1  0
  1 33  1  0
  1 34  1  0
  1 35  1  0
  4 36  1  1
  5 37  1  0
  5 38  1  0
  7 39  1  0
  8 40  1  0
  9 41  1  0
 10 42  1  0
 11 43  1  0
 12 44  1  0
 14 45  1  0
 14 46  1  0
 17 47  1  0
 17 48  1  0
 17 49  1  0
 18 50  1  0
 21 51  1  0
 22 52  1  0
 23 53  1  0
 24 54  1  0
 28 55  1  0
 29 56  1  0
 30 57  1  0
 31 58  1  0
 32 59  1  0
M  END
>  <ScrubInfo>  (1) 
{"isomerGroup": 0, "isomerId": 0, "confId": 0, "nr_conformers:": 1, "nr_isomers:": 1}

$$$$
