REMARK SMILES Cc1[nH]c2ccccc2c1CC(=O)N[C@@H](Cc1ccccc1)C(=O)N(C)c1ccccc1
REMARK SMILES IDX 14 1 12 2 13 3 15 5 23 6 24 7 25 8 26 9 27 10 28 11 32 12
REMARK SMILES IDX 29 13 31 14 30 15 16 16 17 17 18 18 22 19 19 20 21 21 20 22
REMARK SMILES IDX 11 23 10 24 2 25 9 26 3 27 4 28 8 29 5 30 7 31 6 32 1 33
REMARK H PARENT 14 4 3 34
ROOT
ATOM      1  N   UNL     1       0.109  -0.717  -0.152  1.00  0.00    -0.344 N 
ATOM      2  C   UNL     1       0.802  -0.433   1.011  1.00  0.00     0.225 C 
ATOM      3  O   UNL     1       0.411   0.402   1.825  1.00  0.00    -0.275 OA
ATOM      4  H   UNL     1       0.231  -1.650  -0.528  1.00  0.00     0.164 HD
ENDROOT
BRANCH   1   5
ATOM      5  C   UNL     1      -1.214  -0.125  -0.372  1.00  0.00     0.176 C 
BRANCH   5   6
ATOM      6  C   UNL     1      -2.264  -1.084   0.246  1.00  0.00     0.249 C 
ATOM      7  O   UNL     1      -1.987  -2.290   0.291  1.00  0.00    -0.272 OA
BRANCH   6   8
ATOM      8  N   UNL     1      -3.490  -0.533   0.669  1.00  0.00    -0.314 N 
ATOM      9  C   UNL     1      -3.662   0.913   0.815  1.00  0.00     0.153 C 
BRANCH   8  10
ATOM     10  C   UNL     1      -4.543  -1.376   1.185  1.00  0.00     0.043 A 
ATOM     11  C   UNL     1      -4.731  -2.685   0.718  1.00  0.00     0.026 A 
ATOM     12  C   UNL     1      -5.446  -0.903   2.154  1.00  0.00     0.026 A 
ATOM     13  C   UNL     1      -5.768  -3.492   1.201  1.00  0.00     0.002 A 
ATOM     14  C   UNL     1      -6.484  -1.708   2.639  1.00  0.00     0.002 A 
ATOM     15  C   UNL     1      -6.645  -3.003   2.162  1.00  0.00     0.000 A 
ENDBRANCH   8  10
ENDBRANCH   6   8
ENDBRANCH   5   6
BRANCH   5  16
ATOM     16  C   UNL     1      -1.524   0.013  -1.873  1.00  0.00     0.070 C 
BRANCH  16  17
ATOM     17  C   UNL     1      -0.564   0.878  -2.660  1.00  0.00    -0.045 A 
ATOM     18  C   UNL     1      -0.064   0.421  -3.889  1.00  0.00     0.004 A 
ATOM     19  C   UNL     1      -0.191   2.155  -2.216  1.00  0.00     0.004 A 
ATOM     20  C   UNL     1       0.800   1.214  -4.647  1.00  0.00     0.000 A 
ATOM     21  C   UNL     1       0.676   2.945  -2.975  1.00  0.00     0.000 A 
ATOM     22  C   UNL     1       1.171   2.476  -4.189  1.00  0.00     0.000 A 
ENDBRANCH  16  17
ENDBRANCH   5  16
ENDBRANCH   1   5
BRANCH   2  23
ATOM     23  C   UNL     1       2.074  -1.247   1.189  1.00  0.00     0.138 C 
BRANCH  23  24
ATOM     24  C   UNL     1       3.292  -0.381   1.281  1.00  0.00    -0.010 A 
ATOM     25  C   UNL     1       4.101  -0.201   2.394  1.00  0.00     0.016 A 
ATOM     26  C   UNL     1       3.853   0.406   0.222  1.00  0.00     0.003 A 
ATOM     27  N   UNL     1       5.113   0.656   2.039  1.00  0.00    -0.358 N 
ATOM     28  C   UNL     1       4.990   1.036   0.725  1.00  0.00     0.046 A 
ATOM     29  C   UNL     1       3.496   0.643  -1.122  1.00  0.00     0.010 A 
ATOM     30  C   UNL     1       5.793   1.885  -0.047  1.00  0.00     0.026 A 
ATOM     31  C   UNL     1       4.287   1.490  -1.908  1.00  0.00     0.001 A 
ATOM     32  C   UNL     1       5.419   2.100  -1.376  1.00  0.00     0.002 A 
ATOM     33  C   UNL     1       4.001  -0.760   3.767  1.00  0.00     0.064 C 
ATOM     34  H   UNL     1       5.849   0.973   2.654  1.00  0.00     0.166 HD
ENDBRANCH  23  24
ENDBRANCH   2  23
TORSDOF 8
